
     RDKit          3D

 38 40  0  0  0  0  0  0  0  0999 V2000
    1.0119    0.3169    0.8378 N   0  0  0  0  0  0  0  0  0  0  0  0
   -0.1602   -0.1906    0.3478 C   0  0  0  0  0  0  0  0  0  0  0  0
   -0.2053   -1.1081   -0.5467 N   0  0  0  0  0  0  0  0  0  0  0  0
   -1.4366   -1.5336   -0.8678 C   0  0  0  0  0  0  0  0  0  0  0  0
   -2.5688   -1.0748   -0.4730 N   0  0  0  0  0  0  0  0  0  0  0  0
   -2.5720    0.1099    0.3704 C   0  0  0  0  0  0  0  0  0  0  0  0
   -1.2584    0.3309    0.9432 N   0  0  0  0  0  0  0  0  0  0  0  0
   -3.5712   -0.1408    1.5165 C   0  0  0  0  0  0  0  0  0  0  0  0
   -4.1881    1.1661    2.0292 C   0  0  0  0  0  0  0  0  0  0  0  0
   -4.9822    1.8836    0.9232 C   0  0  0  0  0  0  0  0  0  0  0  0
   -4.4586    1.5885   -0.4932 C   0  0  0  0  0  0  0  0  0  0  0  0
   -2.9467    1.3373   -0.4889 C   0  0  0  0  0  0  0  0  0  0  0  0
   -1.4733   -2.6050   -1.6599 N   0  0  0  0  0  0  0  0  0  0  0  0
    2.3030    0.1031    0.3437 C   0  0  0  0  0  0  0  0  0  0  0  0
    3.3672    0.1709    1.2508 C   0  0  0  0  0  0  0  0  0  0  0  0
    4.6894   -0.0058    0.8296 C   0  0  0  0  0  0  0  0  0  0  0  0
    6.1200    0.0830    2.0937 Br  0  0  0  0  0  0  0  0  0  0  0  0
    4.9577   -0.2464   -0.5202 C   0  0  0  0  0  0  0  0  0  0  0  0
    3.9097   -0.3046   -1.4436 C   0  0  0  0  0  0  0  0  0  0  0  0
    2.5904   -0.1251   -1.0123 C   0  0  0  0  0  0  0  0  0  0  0  0
    0.9411    0.5945    1.8047 H   0  0  0  0  0  0  0  0  0  0  0  0
   -1.1115    1.2437    1.3446 H   0  0  0  0  0  0  0  0  0  0  0  0
   -4.3785   -0.7918    1.1649 H   0  0  0  0  0  0  0  0  0  0  0  0
   -3.0693   -0.6643    2.3359 H   0  0  0  0  0  0  0  0  0  0  0  0
   -4.8476    0.9599    2.8781 H   0  0  0  0  0  0  0  0  0  0  0  0
   -3.3868    1.8212    2.3861 H   0  0  0  0  0  0  0  0  0  0  0  0
   -6.0328    1.5799    0.9738 H   0  0  0  0  0  0  0  0  0  0  0  0
   -4.9429    2.9616    1.1098 H   0  0  0  0  0  0  0  0  0  0  0  0
   -4.9617    0.7001   -0.8903 H   0  0  0  0  0  0  0  0  0  0  0  0
   -4.6981    2.4261   -1.1557 H   0  0  0  0  0  0  0  0  0  0  0  0
   -2.4486    2.2314   -0.1021 H   0  0  0  0  0  0  0  0  0  0  0  0
   -2.5957    1.1897   -1.5152 H   0  0  0  0  0  0  0  0  0  0  0  0
   -2.3345   -3.1181   -1.5394 H   0  0  0  0  0  0  0  0  0  0  0  0
   -0.5994   -3.1098   -1.6257 H   0  0  0  0  0  0  0  0  0  0  0  0
    3.1775    0.3563    2.3017 H   0  0  0  0  0  0  0  0  0  0  0  0
    5.9841   -0.3848   -0.8464 H   0  0  0  0  0  0  0  0  0  0  0  0
    4.1161   -0.4865   -2.4942 H   0  0  0  0  0  0  0  0  0  0  0  0
    1.7872   -0.1599   -1.7409 H   0  0  0  0  0  0  0  0  0  0  0  0
  1  2  1  0
  1 14  1  0
  2  3  2  0
  2  7  1  0
  3  4  1  0
  4  5  2  0
  4 13  1  0
  5  6  1  0
  6  7  1  0
  6  8  1  0
  6 12  1  0
  8  9  1  0
  9 10  1  0
 10 11  1  0
 11 12  1  0
 14 15  2  0
 14 20  1  0
 15 16  1  0
 16 17  1  0
 16 18  2  0
 18 19  1  0
 19 20  2  0
  1 21  1  0
  7 22  1  0
  8 23  1  0
  8 24  1  0
  9 25  1  0
  9 26  1  0
 10 27  1  0
 10 28  1  0
 11 29  1  0
 11 30  1  0
 12 31  1  0
 12 32  1  0
 13 33  1  0
 13 34  1  0
 15 35  1  0
 18 36  1  0
 19 37  1  0
 20 38  1  0
M  END
$$$$
