
     RDKit          3D

 38 40  0  0  0  0  0  0  0  0999 V2000
   -0.5587    0.2997    1.1542 N   0  0  0  0  0  0  0  0  0  0  0  0
    0.1134    0.2719   -0.0367 C   0  0  0  0  0  0  0  0  0  0  0  0
   -0.4709    0.1209   -1.1668 N   0  0  0  0  0  0  0  0  0  0  0  0
    0.3327    0.1789   -2.2387 C   0  0  0  0  0  0  0  0  0  0  0  0
    1.6127    0.2785   -2.2731 N   0  0  0  0  0  0  0  0  0  0  0  0
    2.3389    0.2413   -1.0146 C   0  0  0  0  0  0  0  0  0  0  0  0
    1.4425    0.4852    0.1000 N   0  0  0  0  0  0  0  0  0  0  0  0
    3.4233    1.3398   -1.0432 C   0  0  0  0  0  0  0  0  0  0  0  0
    4.7504    0.9313   -0.3753 C   0  0  0  0  0  0  0  0  0  0  0  0
    4.5173    0.0144    0.8277 C   0  0  0  0  0  0  0  0  0  0  0  0
    3.8157   -1.2921    0.4168 C   0  0  0  0  0  0  0  0  0  0  0  0
    2.9601   -1.1531   -0.8584 C   0  0  0  0  0  0  0  0  0  0  0  0
   -0.2992    0.1821   -3.4122 N   0  0  0  0  0  0  0  0  0  0  0  0
   -1.8987   -0.0383    1.3729 C   0  0  0  0  0  0  0  0  0  0  0  0
   -2.5639   -1.0448    0.6550 C   0  0  0  0  0  0  0  0  0  0  0  0
   -3.8965   -1.3681    0.9304 C   0  0  0  0  0  0  0  0  0  0  0  0
   -4.7810   -2.7380   -0.0663 Br  0  0  0  0  0  0  0  0  0  0  0  0
   -4.5769   -0.6859    1.9419 C   0  0  0  0  0  0  0  0  0  0  0  0
   -3.9269    0.3106    2.6761 C   0  0  0  0  0  0  0  0  0  0  0  0
   -2.5927    0.6260    2.3925 C   0  0  0  0  0  0  0  0  0  0  0  0
   -0.1277    0.9177    1.8240 H   0  0  0  0  0  0  0  0  0  0  0  0
    1.8045    0.2007    0.9967 H   0  0  0  0  0  0  0  0  0  0  0  0
    3.6387    1.6169   -2.0800 H   0  0  0  0  0  0  0  0  0  0  0  0
    3.0323    2.2351   -0.5501 H   0  0  0  0  0  0  0  0  0  0  0  0
    5.3768    0.4069   -1.1047 H   0  0  0  0  0  0  0  0  0  0  0  0
    5.2922    1.8291   -0.0617 H   0  0  0  0  0  0  0  0  0  0  0  0
    5.4727   -0.2201    1.3079 H   0  0  0  0  0  0  0  0  0  0  0  0
    3.9031    0.5452    1.5622 H   0  0  0  0  0  0  0  0  0  0  0  0
    4.5676   -2.0688    0.2436 H   0  0  0  0  0  0  0  0  0  0  0  0
    3.1851   -1.6281    1.2461 H   0  0  0  0  0  0  0  0  0  0  0  0
    2.1732   -1.9139   -0.8552 H   0  0  0  0  0  0  0  0  0  0  0  0
    3.5916   -1.3453   -1.7318 H   0  0  0  0  0  0  0  0  0  0  0  0
    0.2458    0.6458   -4.1241 H   0  0  0  0  0  0  0  0  0  0  0  0
   -1.2703    0.4362   -3.2992 H   0  0  0  0  0  0  0  0  0  0  0  0
   -2.0466   -1.5903   -0.1271 H   0  0  0  0  0  0  0  0  0  0  0  0
   -5.6117   -0.9383    2.1527 H   0  0  0  0  0  0  0  0  0  0  0  0
   -4.4577    0.8377    3.4635 H   0  0  0  0  0  0  0  0  0  0  0  0
   -2.0976    1.4007    2.9671 H   0  0  0  0  0  0  0  0  0  0  0  0
  1  2  1  0
  1 14  1  0
  2  3  2  0
  2  7  1  0
  3  4  1  0
  4  5  2  0
  4 13  1  0
  5  6  1  0
  6  7  1  0
  6  8  1  0
  6 12  1  0
  8  9  1  0
  9 10  1  0
 10 11  1  0
 11 12  1  0
 14 15  2  0
 14 20  1  0
 15 16  1  0
 16 17  1  0
 16 18  2  0
 18 19  1  0
 19 20  2  0
  1 21  1  0
  7 22  1  0
  8 23  1  0
  8 24  1  0
  9 25  1  0
  9 26  1  0
 10 27  1  0
 10 28  1  0
 11 29  1  0
 11 30  1  0
 12 31  1  0
 12 32  1  0
 13 33  1  0
 13 34  1  0
 15 35  1  0
 18 36  1  0
 19 37  1  0
 20 38  1  0
M  END
$$$$
