
     RDKit          3D

 38 40  0  0  0  0  0  0  0  0999 V2000
    0.7460    1.1004   -0.2751 N   0  0  0  0  0  0  0  0  0  0  0  0
   -0.1079    0.0403   -0.4073 C   0  0  0  0  0  0  0  0  0  0  0  0
    0.2854   -1.1791   -0.4108 N   0  0  0  0  0  0  0  0  0  0  0  0
   -0.6777   -2.0903   -0.6118 C   0  0  0  0  0  0  0  0  0  0  0  0
   -1.9443   -1.9047   -0.7138 N   0  0  0  0  0  0  0  0  0  0  0  0
   -2.4612   -0.5620   -0.5070 C   0  0  0  0  0  0  0  0  0  0  0  0
   -1.3935    0.4162   -0.5985 N   0  0  0  0  0  0  0  0  0  0  0  0
   -3.5125   -0.2692   -1.5989 C   0  0  0  0  0  0  0  0  0  0  0  0
   -4.7246    0.5429   -1.1036 C   0  0  0  0  0  0  0  0  0  0  0  0
   -4.3223    1.5599   -0.0330 C   0  0  0  0  0  0  0  0  0  0  0  0
   -3.7233    0.8711    1.2059 C   0  0  0  0  0  0  0  0  0  0  0  0
   -3.0791   -0.4951    0.8960 C   0  0  0  0  0  0  0  0  0  0  0  0
   -0.2411   -3.3392   -0.7736 N   0  0  0  0  0  0  0  0  0  0  0  0
    2.0968    1.0537    0.0870 C   0  0  0  0  0  0  0  0  0  0  0  0
    2.6186    0.1103    0.9863 C   0  0  0  0  0  0  0  0  0  0  0  0
    3.9714    0.1221    1.3413 C   0  0  0  0  0  0  0  0  0  0  0  0
    4.6579   -1.1777    2.5625 Br  0  0  0  0  0  0  0  0  0  0  0  0
    4.8180    1.0928    0.8005 C   0  0  0  0  0  0  0  0  0  0  0  0
    4.3136    2.0483   -0.0866 C   0  0  0  0  0  0  0  0  0  0  0  0
    2.9577    2.0278   -0.4349 C   0  0  0  0  0  0  0  0  0  0  0  0
    0.4400    1.9073   -0.7962 H   0  0  0  0  0  0  0  0  0  0  0  0
   -1.6136    1.3133   -0.1949 H   0  0  0  0  0  0  0  0  0  0  0  0
   -3.0288    0.2695   -2.4196 H   0  0  0  0  0  0  0  0  0  0  0  0
   -3.8844   -1.2116   -2.0134 H   0  0  0  0  0  0  0  0  0  0  0  0
   -5.1902    1.0563   -1.9508 H   0  0  0  0  0  0  0  0  0  0  0  0
   -5.4703   -0.1395   -0.6821 H   0  0  0  0  0  0  0  0  0  0  0  0
   -3.5877    2.2501   -0.4601 H   0  0  0  0  0  0  0  0  0  0  0  0
   -5.1937    2.1519    0.2645 H   0  0  0  0  0  0  0  0  0  0  0  0
   -2.9759    1.5360    1.6505 H   0  0  0  0  0  0  0  0  0  0  0  0
   -4.5096    0.7192    1.9524 H   0  0  0  0  0  0  0  0  0  0  0  0
   -3.8457   -1.2732    0.9689 H   0  0  0  0  0  0  0  0  0  0  0  0
   -2.3182   -0.7197    1.6499 H   0  0  0  0  0  0  0  0  0  0  0  0
   -0.8830   -3.8859   -1.3285 H   0  0  0  0  0  0  0  0  0  0  0  0
    0.7407   -3.3510   -1.0112 H   0  0  0  0  0  0  0  0  0  0  0  0
    1.9723   -0.6441    1.4222 H   0  0  0  0  0  0  0  0  0  0  0  0
    5.8679    1.0987    1.0771 H   0  0  0  0  0  0  0  0  0  0  0  0
    4.9736    2.8033   -0.5037 H   0  0  0  0  0  0  0  0  0  0  0  0
    2.5762    2.7727   -1.1242 H   0  0  0  0  0  0  0  0  0  0  0  0
  1  2  1  0
  1 14  1  0
  2  3  2  0
  2  7  1  0
  3  4  1  0
  4  5  2  0
  4 13  1  0
  5  6  1  0
  6  7  1  0
  6  8  1  0
  6 12  1  0
  8  9  1  0
  9 10  1  0
 10 11  1  0
 11 12  1  0
 14 15  2  0
 14 20  1  0
 15 16  1  0
 16 17  1  0
 16 18  2  0
 18 19  1  0
 19 20  2  0
  1 21  1  0
  7 22  1  0
  8 23  1  0
  8 24  1  0
  9 25  1  0
  9 26  1  0
 10 27  1  0
 10 28  1  0
 11 29  1  0
 11 30  1  0
 12 31  1  0
 12 32  1  0
 13 33  1  0
 13 34  1  0
 15 35  1  0
 18 36  1  0
 19 37  1  0
 20 38  1  0
M  END
$$$$
