
     RDKit          3D

 38 40  0  0  0  0  0  0  0  0999 V2000
    1.0655    0.4466    0.5624 N   0  0  0  0  0  0  0  0  0  0  0  0
   -0.1359   -0.1664    0.3337 C   0  0  0  0  0  0  0  0  0  0  0  0
   -0.2444   -1.2832   -0.2868 N   0  0  0  0  0  0  0  0  0  0  0  0
   -1.4908   -1.7732   -0.3686 C   0  0  0  0  0  0  0  0  0  0  0  0
   -2.5909   -1.2249    0.0020 N   0  0  0  0  0  0  0  0  0  0  0  0
   -2.5411    0.1370    0.5098 C   0  0  0  0  0  0  0  0  0  0  0  0
   -1.1848    0.4943    0.8775 N   0  0  0  0  0  0  0  0  0  0  0  0
   -3.0218    1.1030   -0.5952 C   0  0  0  0  0  0  0  0  0  0  0  0
   -4.5326    1.3490   -0.5180 C   0  0  0  0  0  0  0  0  0  0  0  0
   -4.9273    2.0001    0.8191 C   0  0  0  0  0  0  0  0  0  0  0  0
   -4.0173    1.5889    1.9902 C   0  0  0  0  0  0  0  0  0  0  0  0
   -3.4226    0.1923    1.7727 C   0  0  0  0  0  0  0  0  0  0  0  0
   -1.5780   -3.0122   -0.8522 N   0  0  0  0  0  0  0  0  0  0  0  0
    2.3093    0.1085    0.0190 C   0  0  0  0  0  0  0  0  0  0  0  0
    3.4516    0.4050    0.7721 C   0  0  0  0  0  0  0  0  0  0  0  0
    4.7324    0.1214    0.2865 C   0  0  0  0  0  0  0  0  0  0  0  0
    6.2720    0.5292    1.3426 Br  0  0  0  0  0  0  0  0  0  0  0  0
    4.8792   -0.4606   -0.9752 C   0  0  0  0  0  0  0  0  0  0  0  0
    3.7513   -0.7520   -1.7480 C   0  0  0  0  0  0  0  0  0  0  0  0
    2.4743   -0.4631   -1.2537 C   0  0  0  0  0  0  0  0  0  0  0  0
    1.0790    0.9647    1.4275 H   0  0  0  0  0  0  0  0  0  0  0  0
   -1.0210    1.4792    1.0150 H   0  0  0  0  0  0  0  0  0  0  0  0
   -2.5094    2.0651   -0.5004 H   0  0  0  0  0  0  0  0  0  0  0  0
   -2.7655    0.6953   -1.5782 H   0  0  0  0  0  0  0  0  0  0  0  0
   -4.8516    1.9887   -1.3467 H   0  0  0  0  0  0  0  0  0  0  0  0
   -5.0511    0.3898   -0.6237 H   0  0  0  0  0  0  0  0  0  0  0  0
   -4.8943    3.0897    0.7184 H   0  0  0  0  0  0  0  0  0  0  0  0
   -5.9616    1.7228    1.0469 H   0  0  0  0  0  0  0  0  0  0  0  0
   -3.2007    2.3115    2.0884 H   0  0  0  0  0  0  0  0  0  0  0  0
   -4.5895    1.6099    2.9230 H   0  0  0  0  0  0  0  0  0  0  0  0
   -4.2448   -0.5249    1.6791 H   0  0  0  0  0  0  0  0  0  0  0  0
   -2.8347   -0.1043    2.6466 H   0  0  0  0  0  0  0  0  0  0  0  0
   -2.4128   -3.4744   -0.5222 H   0  0  0  0  0  0  0  0  0  0  0  0
   -0.6939   -3.4939   -0.7735 H   0  0  0  0  0  0  0  0  0  0  0  0
    3.3565    0.8562    1.7531 H   0  0  0  0  0  0  0  0  0  0  0  0
    5.8735   -0.6817   -1.3511 H   0  0  0  0  0  0  0  0  0  0  0  0
    3.8630   -1.1998   -2.7311 H   0  0  0  0  0  0  0  0  0  0  0  0
    1.6077   -0.6823   -1.8686 H   0  0  0  0  0  0  0  0  0  0  0  0
  1  2  1  0
  1 14  1  0
  2  3  2  0
  2  7  1  0
  3  4  1  0
  4  5  2  0
  4 13  1  0
  5  6  1  0
  6  7  1  0
  6  8  1  0
  6 12  1  0
  8  9  1  0
  9 10  1  0
 10 11  1  0
 11 12  1  0
 14 15  2  0
 14 20  1  0
 15 16  1  0
 16 17  1  0
 16 18  2  0
 18 19  1  0
 19 20  2  0
  1 21  1  0
  7 22  1  0
  8 23  1  0
  8 24  1  0
  9 25  1  0
  9 26  1  0
 10 27  1  0
 10 28  1  0
 11 29  1  0
 11 30  1  0
 12 31  1  0
 12 32  1  0
 13 33  1  0
 13 34  1  0
 15 35  1  0
 18 36  1  0
 19 37  1  0
 20 38  1  0
M  END
$$$$
