
 OpenBabel03162220583D

 38 40  0  0  0  0  0  0  0  0999 V2000
    1.1463    0.2419    0.0816 N   0  0  0  0  0  0  0  0  0  0  0  0
   -0.5099    4.1373   -1.8722 N   0  0  0  0  0  0  0  0  0  0  0  0
    0.3747    2.2497   -0.9100 N   0  0  0  0  0  0  0  0  0  0  0  0
    5.7262    2.5866   -1.1654 Br  0  0  0  0  0  0  0  0  0  0  0  0
   -1.4169    3.4067    0.0776 N   0  0  0  0  0  0  0  0  0  0  0  0
   -0.5870    1.2950    0.9782 N   0  0  0  0  0  0  0  0  0  0  0  0
   -0.5499    3.2404   -0.8567 C   0  0  0  0  0  0  0  0  0  0  0  0
   -1.2721    3.1057    2.4780 C   0  0  0  0  0  0  0  0  0  0  0  0
   -1.5948    2.2224    3.6883 C   0  0  0  0  0  0  0  0  0  0  0  0
   -2.9737    1.5748    3.5898 C   0  0  0  0  0  0  0  0  0  0  0  0
   -1.4963    2.3984    1.1234 C   0  0  0  0  0  0  0  0  0  0  0  0
   -2.9234    1.8209    1.0786 C   0  0  0  0  0  0  0  0  0  0  0  0
   -3.2048    0.8811    2.2518 C   0  0  0  0  0  0  0  0  0  0  0  0
    0.3261    1.3296   -0.0128 C   0  0  0  0  0  0  0  0  0  0  0  0
    2.4514    0.1228   -0.4181 C   0  0  0  0  0  0  0  0  0  0  0  0
    3.2893    1.2322   -0.5775 C   0  0  0  0  0  0  0  0  0  0  0  0
    2.9642   -1.1508   -0.7168 C   0  0  0  0  0  0  0  0  0  0  0  0
    4.2775   -1.3056   -1.1617 C   0  0  0  0  0  0  0  0  0  0  0  0
    4.6040    1.0717   -1.0079 C   0  0  0  0  0  0  0  0  0  0  0  0
    5.1037   -0.1939   -1.3023 C   0  0  0  0  0  0  0  0  0  0  0  0
    0.6654   -0.6285    0.2561 H   0  0  0  0  0  0  0  0  0  0  0  0
   -0.8686    5.0443   -1.6115 H   0  0  0  0  0  0  0  0  0  0  0  0
    0.3797    4.1410   -2.3509 H   0  0  0  0  0  0  0  0  0  0  0  0
   -0.2544    0.8841    1.8384 H   0  0  0  0  0  0  0  0  0  0  0  0
   -0.2373    3.4634    2.5581 H   0  0  0  0  0  0  0  0  0  0  0  0
   -1.9073    4.0013    2.5305 H   0  0  0  0  0  0  0  0  0  0  0  0
   -1.5423    2.8245    4.6034 H   0  0  0  0  0  0  0  0  0  0  0  0
   -0.8322    1.4421    3.7946 H   0  0  0  0  0  0  0  0  0  0  0  0
   -3.7431    2.3428    3.7317 H   0  0  0  0  0  0  0  0  0  0  0  0
   -3.0958    0.8489    4.4021 H   0  0  0  0  0  0  0  0  0  0  0  0
   -3.0815    1.2794    0.1360 H   0  0  0  0  0  0  0  0  0  0  0  0
   -3.6582    2.6372    1.0904 H   0  0  0  0  0  0  0  0  0  0  0  0
   -4.2377    0.5247    2.1943 H   0  0  0  0  0  0  0  0  0  0  0  0
   -2.5643   -0.0075    2.1821 H   0  0  0  0  0  0  0  0  0  0  0  0
    2.9200    2.2257   -0.3362 H   0  0  0  0  0  0  0  0  0  0  0  0
    2.3384   -2.0345   -0.6112 H   0  0  0  0  0  0  0  0  0  0  0  0
    4.6594   -2.2986   -1.3945 H   0  0  0  0  0  0  0  0  0  0  0  0
    6.1282   -0.3209   -1.6370 H   0  0  0  0  0  0  0  0  0  0  0  0
  1 15  1  0  0  0  0
  1 21  1  0  0  0  0
  2  7  1  0  0  0  0
  2 22  1  0  0  0  0
  2 23  1  0  0  0  0
  3 14  2  0  0  0  0
  5 11  1  0  0  0  0
  6 24  1  0  0  0  0
  7  5  2  0  0  0  0
  7  3  1  0  0  0  0
  8  9  1  0  0  0  0
  8 11  1  0  0  0  0
  8 25  1  0  0  0  0
  8 26  1  0  0  0  0
  9 10  1  0  0  0  0
  9 27  1  0  0  0  0
  9 28  1  0  0  0  0
 10 13  1  0  0  0  0
 10 29  1  0  0  0  0
 10 30  1  0  0  0  0
 11  6  1  0  0  0  0
 11 12  1  0  0  0  0
 12 13  1  0  0  0  0
 12 31  1  0  0  0  0
 12 32  1  0  0  0  0
 13 33  1  0  0  0  0
 13 34  1  0  0  0  0
 14  6  1  0  0  0  0
 14  1  1  0  0  0  0
 15 16  2  0  0  0  0
 15 17  1  0  0  0  0
 16 19  1  0  0  0  0
 16 35  1  0  0  0  0
 17 18  2  0  0  0  0
 17 36  1  0  0  0  0
 18 20  1  0  0  0  0
 18 37  1  0  0  0  0
 19 20  2  0  0  0  0
 19  4  1  0  0  0  0
 20 38  1  0  0  0  0
M  END
$$$$
